Pcp_File_Version=4
*** BLOCK I: ATMOSPHERIC INFORMATION  **********************************
   MaxAL                    (MaxAL = number of atmospheric data-records)
     31
 DailyVar  SinusVar  lLay  lBCCycles lInterc lDummy  lDummy  lDummy  lDummy  lDummy
       f       f       t       f       t       f       f       f       f       f
 Extinction
     0.6
 aIntercep (0.25 mm)
     2.5
 hCritS                 (max. allowed pressure head at the soil surface)
      0
       tAtm        Prec       rSoil       rRoot      hCritA          rB          hB          ht    RootDepth
          1       0.777      0.5785        1.84      100000           0           0           0 
          2      0.1295       0.451        1.84      100000           0           0           0 
          3      0.8288      0.5216        1.84      100000           0           0           0 
          4           0      0.5718        1.84      100000           0           0           0 
          5           0      0.6899        1.84      100000           0           0           0 
          6           0      0.6134        1.84      100000           0           0           0 
          7       4.921      0.3936        1.84      100000           0           0           0 
          8      1.1396      0.3302        1.84      100000           0           0           0 
          9      0.1554       0.655        1.84      100000           0           0           0 
         10      0.2072      0.5696        1.84      100000           0           0           0 
         11      0.1813      0.6684        1.84      100000           0           0           0 
         12           0      0.6632        1.84      100000           0           0           0 
         13           0      0.5748        1.84      100000           0           0           0 
         14           0      0.7158        1.84      100000           0           0           0 
         15      0.0259      0.6388        1.84      100000           0           0           0 
         16      0.4921       0.681        1.84      100000           0           0           0 
         17           0      0.6472        1.84      100000           0           0           0 
         18           0      0.5998        1.84      100000           0           0           0 
         19           0      0.4915        1.84      100000           0           0           0 
         20           0      0.6776        1.84      100000           0           0           0 
         21           0      0.7026        1.84      100000           0           0           0 
         22           0      0.7957        1.84      100000           0           0           0 
         23           0      0.7536        1.84      100000           0           0           0 
         24           0      0.8055        1.84      100000           0           0           0 
         25           0       0.805        1.84      100000           0           0           0 
         26           0      0.6816        1.84      100000           0           0           0 
         27       2.072      0.5484        1.84      100000           0           0           0 
         28           0      0.6671        1.84      100000           0           0           0 
         29      0.6475      0.5002        1.84      100000           0           0           0 
         30      0.1813       0.538        1.84      100000           0           0           0 
         31      0.3885      0.5644        1.84      100000           0           0           0 
end*** END OF INPUT FILE 'ATMOSPH.IN' **********************************
