Pcp_File_Version=4
    2
    1  0.000000e+000  1.000000e+000  1.000000e+000
    2 -5.000000e+001  1.000000e+000  1.000000e+000
  101    0    0    1 x         h      Mat  Lay      Beta           Axz            Bxz            Dxz          Temp          Conc 
    1 -0.000000e+000  7.000000e-002    1    1  4.166670e-002  1.000000e+000  1.000000e+000  1.000000e+000              
    2 -5.000000e-001  7.000000e-002    1    1  4.166670e-002  1.000000e+000  1.000000e+000  1.000000e+000              
    3 -1.000000e+000  7.000000e-002    1    1  4.166670e-002  1.000000e+000  1.000000e+000  1.000000e+000              
    4 -1.500000e+000  7.000000e-002    1    1  4.166670e-002  1.000000e+000  1.000000e+000  1.000000e+000              
    5 -2.000000e+000  7.000000e-002    1    1  4.166670e-002  1.000000e+000  1.000000e+000  1.000000e+000              
    6 -2.500000e+000  7.000000e-002    1    1  4.166670e-002  1.000000e+000  1.000000e+000  1.000000e+000              
    7 -3.000000e+000  7.000000e-002    1    1  4.166670e-002  1.000000e+000  1.000000e+000  1.000000e+000              
    8 -3.500000e+000  7.000000e-002    1    1  4.166670e-002  1.000000e+000  1.000000e+000  1.000000e+000              
    9 -4.000000e+000  7.000000e-002    1    1  4.166670e-002  1.000000e+000  1.000000e+000  1.000000e+000              
   10 -4.500000e+000  7.000000e-002    1    1  4.166670e-002  1.000000e+000  1.000000e+000  1.000000e+000              
   11 -5.000000e+000  7.000000e-002    1    1  4.166670e-002  1.000000e+000  1.000000e+000  1.000000e+000              
   12 -5.500000e+000  7.000000e-002    1    1  4.166670e-002  1.000000e+000  1.000000e+000  1.000000e+000              
   13 -6.000000e+000  7.000000e-002    1    1  4.166670e-002  1.000000e+000  1.000000e+000  1.000000e+000              
   14 -6.500000e+000  7.000000e-002    1    1  4.166670e-002  1.000000e+000  1.000000e+000  1.000000e+000              
   15 -7.000000e+000  7.000000e-002    1    1  4.166670e-002  1.000000e+000  1.000000e+000  1.000000e+000              
   16 -7.500000e+000  7.000000e-002    1    1  4.166670e-002  1.000000e+000  1.000000e+000  1.000000e+000              
   17 -8.000000e+000  7.000000e-002    1    1  4.166670e-002  1.000000e+000  1.000000e+000  1.000000e+000              
   18 -8.500000e+000  7.000000e-002    1    1  4.101500e-002  1.000000e+000  1.000000e+000  1.000000e+000              
   19 -9.000000e+000  7.000000e-002    1    1  4.036390e-002  1.000000e+000  1.000000e+000  1.000000e+000              
   20 -9.500000e+000  7.000000e-002    1    1  3.971290e-002  1.000000e+000  1.000000e+000  1.000000e+000              
   21 -1.000000e+001  7.000000e-002    1    1  3.906190e-002  1.000000e+000  1.000000e+000  1.000000e+000              
   22 -1.050000e+001  7.000000e-002    1    1  3.841080e-002  1.000000e+000  1.000000e+000  1.000000e+000              
   23 -1.100000e+001  7.000000e-002    1    1  3.775980e-002  1.000000e+000  1.000000e+000  1.000000e+000              
   24 -1.150000e+001  7.000000e-002    1    1  3.710880e-002  1.000000e+000  1.000000e+000  1.000000e+000              
   25 -1.200000e+001  7.000000e-002    1    1  3.645780e-002  1.000000e+000  1.000000e+000  1.000000e+000              
   26 -1.250000e+001  7.000000e-002    1    1  3.580670e-002  1.000000e+000  1.000000e+000  1.000000e+000              
   27 -1.300000e+001  7.000000e-002    1    1  3.515570e-002  1.000000e+000  1.000000e+000  1.000000e+000              
   28 -1.350000e+001  7.000000e-002    1    1  3.450470e-002  1.000000e+000  1.000000e+000  1.000000e+000              
   29 -1.400000e+001  7.000000e-002    1    1  3.385360e-002  1.000000e+000  1.000000e+000  1.000000e+000              
   30 -1.450000e+001  7.000000e-002    1    1  3.320260e-002  1.000000e+000  1.000000e+000  1.000000e+000              
   31 -1.500000e+001  7.000000e-002    1    1  3.255160e-002  1.000000e+000  1.000000e+000  1.000000e+000              
   32 -1.550000e+001  7.000000e-002    1    1  3.190050e-002  1.000000e+000  1.000000e+000  1.000000e+000              
   33 -1.600000e+001  7.000000e-002    1    1  3.124950e-002  1.000000e+000  1.000000e+000  1.000000e+000              
   34 -1.650000e+001  7.000000e-002    1    1  3.059850e-002  1.000000e+000  1.000000e+000  1.000000e+000              
   35 -1.700000e+001  7.000000e-002    1    1  2.994740e-002  1.000000e+000  1.000000e+000  1.000000e+000              
   36 -1.750000e+001  7.000000e-002    1    1  2.929640e-002  1.000000e+000  1.000000e+000  1.000000e+000              
   37 -1.800000e+001  7.000000e-002    1    1  2.864540e-002  1.000000e+000  1.000000e+000  1.000000e+000              
   38 -1.850000e+001  7.000000e-002    1    1  2.799430e-002  1.000000e+000  1.000000e+000  1.000000e+000              
   39 -1.900000e+001  7.000000e-002    1    1  2.734330e-002  1.000000e+000  1.000000e+000  1.000000e+000              
   40 -1.950000e+001  7.000000e-002    1    1  2.669230e-002  1.000000e+000  1.000000e+000  1.000000e+000              
   41 -2.000000e+001  7.000000e-002    1    1  2.604130e-002  1.000000e+000  1.000000e+000  1.000000e+000              
   42 -2.050000e+001  7.000000e-002    1    1  2.539020e-002  1.000000e+000  1.000000e+000  1.000000e+000              
   43 -2.100000e+001  7.000000e-002    1    1  2.473920e-002  1.000000e+000  1.000000e+000  1.000000e+000              
   44 -2.150000e+001  7.000000e-002    1    1  2.408820e-002  1.000000e+000  1.000000e+000  1.000000e+000              
   45 -2.200000e+001  7.000000e-002    1    1  2.343710e-002  1.000000e+000  1.000000e+000  1.000000e+000              
   46 -2.250000e+001  7.000000e-002    1    1  2.278610e-002  1.000000e+000  1.000000e+000  1.000000e+000              
   47 -2.300000e+001  7.000000e-002    1    1  2.213510e-002  1.000000e+000  1.000000e+000  1.000000e+000              
   48 -2.350000e+001  7.000000e-002    1    1  2.148400e-002  1.000000e+000  1.000000e+000  1.000000e+000              
   49 -2.400000e+001  7.000000e-002    1    1  2.083300e-002  1.000000e+000  1.000000e+000  1.000000e+000              
   50 -2.450000e+001  7.000000e-002    1    1  2.018200e-002  1.000000e+000  1.000000e+000  1.000000e+000              
   51 -2.500000e+001  7.000000e-002    1    1  1.953090e-002  1.000000e+000  1.000000e+000  1.000000e+000              
   52 -2.550000e+001  7.000000e-002    1    1  1.887990e-002  1.000000e+000  1.000000e+000  1.000000e+000              
   53 -2.600000e+001  7.000000e-002    1    1  1.822890e-002  1.000000e+000  1.000000e+000  1.000000e+000              
   54 -2.650000e+001  7.000000e-002    1    1  1.757780e-002  1.000000e+000  1.000000e+000  1.000000e+000              
   55 -2.700000e+001  7.000000e-002    1    1  1.692680e-002  1.000000e+000  1.000000e+000  1.000000e+000              
   56 -2.750000e+001  7.000000e-002    1    1  1.627580e-002  1.000000e+000  1.000000e+000  1.000000e+000              
   57 -2.800000e+001  7.000000e-002    1    1  1.562480e-002  1.000000e+000  1.000000e+000  1.000000e+000              
   58 -2.850000e+001  7.000000e-002    1    1  1.497370e-002  1.000000e+000  1.000000e+000  1.000000e+000              
   59 -2.900000e+001  7.000000e-002    1    1  1.432270e-002  1.000000e+000  1.000000e+000  1.000000e+000              
   60 -2.950000e+001  7.000000e-002    1    1  1.367170e-002  1.000000e+000  1.000000e+000  1.000000e+000              
   61 -3.000000e+001  7.000000e-002    1    1  1.302060e-002  1.000000e+000  1.000000e+000  1.000000e+000              
   62 -3.050000e+001  7.000000e-002    1    1  1.236960e-002  1.000000e+000  1.000000e+000  1.000000e+000              
   63 -3.100000e+001  7.000000e-002    1    1  1.171860e-002  1.000000e+000  1.000000e+000  1.000000e+000              
   64 -3.150000e+001  7.000000e-002    1    1  1.106750e-002  1.000000e+000  1.000000e+000  1.000000e+000              
   65 -3.200000e+001  7.000000e-002    1    1  1.041650e-002  1.000000e+000  1.000000e+000  1.000000e+000              
   66 -3.250000e+001  7.000000e-002    1    1  9.765470e-003  1.000000e+000  1.000000e+000  1.000000e+000              
   67 -3.300000e+001  7.000000e-002    1    1  9.114440e-003  1.000000e+000  1.000000e+000  1.000000e+000              
   68 -3.350000e+001  7.000000e-002    1    1  8.463410e-003  1.000000e+000  1.000000e+000  1.000000e+000              
   69 -3.400000e+001  7.000000e-002    1    1  7.812380e-003  1.000000e+000  1.000000e+000  1.000000e+000              
   70 -3.450000e+001  7.000000e-002    1    1  7.161340e-003  1.000000e+000  1.000000e+000  1.000000e+000              
   71 -3.500000e+001  7.000000e-002    1    1  6.510310e-003  1.000000e+000  1.000000e+000  1.000000e+000              
   72 -3.550000e+001  7.000000e-002    1    1  5.859280e-003  1.000000e+000  1.000000e+000  1.000000e+000              
   73 -3.600000e+001  7.000000e-002    1    1  5.208250e-003  1.000000e+000  1.000000e+000  1.000000e+000              
   74 -3.650000e+001  7.000000e-002    1    1  4.557220e-003  1.000000e+000  1.000000e+000  1.000000e+000              
   75 -3.700000e+001  7.000000e-002    1    1  3.906190e-003  1.000000e+000  1.000000e+000  1.000000e+000              
   76 -3.750000e+001  7.000000e-002    1    1  3.255160e-003  1.000000e+000  1.000000e+000  1.000000e+000              
   77 -3.800000e+001  7.000000e-002    1    1  2.604130e-003  1.000000e+000  1.000000e+000  1.000000e+000              
   78 -3.850000e+001  7.000000e-002    1    1  1.953090e-003  1.000000e+000  1.000000e+000  1.000000e+000              
   79 -3.900000e+001  7.000000e-002    1    1  1.302060e-003  1.000000e+000  1.000000e+000  1.000000e+000              
   80 -3.950000e+001  7.000000e-002    1    1  6.510310e-004  1.000000e+000  1.000000e+000  1.000000e+000              
   81 -4.000000e+001  7.000000e-002    1    1  0.000000e+000  1.000000e+000  1.000000e+000  1.000000e+000              
   82 -4.050000e+001  7.000000e-002    1    1  0.000000e+000  1.000000e+000  1.000000e+000  1.000000e+000              
   83 -4.100000e+001  7.000000e-002    1    1  0.000000e+000  1.000000e+000  1.000000e+000  1.000000e+000              
   84 -4.150000e+001  7.000000e-002    1    1  0.000000e+000  1.000000e+000  1.000000e+000  1.000000e+000              
   85 -4.200000e+001  7.000000e-002    1    1  0.000000e+000  1.000000e+000  1.000000e+000  1.000000e+000              
   86 -4.250000e+001  7.000000e-002    1    1  0.000000e+000  1.000000e+000  1.000000e+000  1.000000e+000              
   87 -4.300000e+001  7.000000e-002    1    1  0.000000e+000  1.000000e+000  1.000000e+000  1.000000e+000              
   88 -4.350000e+001  7.000000e-002    1    1  0.000000e+000  1.000000e+000  1.000000e+000  1.000000e+000              
   89 -4.400000e+001  7.000000e-002    1    1  0.000000e+000  1.000000e+000  1.000000e+000  1.000000e+000              
   90 -4.450000e+001  7.000000e-002    1    1  0.000000e+000  1.000000e+000  1.000000e+000  1.000000e+000              
   91 -4.500000e+001  7.000000e-002    1    1  0.000000e+000  1.000000e+000  1.000000e+000  1.000000e+000              
   92 -4.550000e+001  7.000000e-002    1    1  0.000000e+000  1.000000e+000  1.000000e+000  1.000000e+000              
   93 -4.600000e+001  7.000000e-002    1    1  0.000000e+000  1.000000e+000  1.000000e+000  1.000000e+000              
   94 -4.650000e+001  7.000000e-002    1    1  0.000000e+000  1.000000e+000  1.000000e+000  1.000000e+000              
   95 -4.700000e+001  7.000000e-002    1    1  0.000000e+000  1.000000e+000  1.000000e+000  1.000000e+000              
   96 -4.750000e+001  7.000000e-002    1    1  0.000000e+000  1.000000e+000  1.000000e+000  1.000000e+000              
   97 -4.800000e+001  7.000000e-002    1    1  0.000000e+000  1.000000e+000  1.000000e+000  1.000000e+000              
   98 -4.850000e+001  7.000000e-002    1    1  0.000000e+000  1.000000e+000  1.000000e+000  1.000000e+000              
   99 -4.900000e+001  7.000000e-002    1    1  0.000000e+000  1.000000e+000  1.000000e+000  1.000000e+000              
  100 -4.950000e+001  7.000000e-002    1    1  0.000000e+000  1.000000e+000  1.000000e+000  1.000000e+000              
  101 -5.000000e+001  7.000000e-002    1    1  0.000000e+000  1.000000e+000  1.000000e+000  1.000000e+000              
    0
